Version 4
SHEET 1 2936 1492
WIRE -304 -1168 -304 -1264
WIRE -304 -1056 -304 -1088
WIRE 16 -880 -64 -880
WIRE 240 -880 80 -880
WIRE -64 -784 -64 -880
WIRE 0 -784 -64 -784
WIRE 240 -784 240 -880
WIRE 240 -784 80 -784
WIRE 176 -720 16 -720
WIRE 16 -688 16 -720
WIRE -224 -672 -288 -672
WIRE -64 -672 -64 -784
WIRE -64 -672 -144 -672
WIRE -16 -672 -64 -672
WIRE 240 -656 240 -784
WIRE 240 -656 48 -656
WIRE 288 -656 240 -656
WIRE -16 -640 -64 -640
WIRE -288 -576 -288 -672
WIRE 16 -576 16 -624
WIRE 176 -576 176 -720
WIRE -288 -464 -288 -496
WIRE -64 -464 -64 -640
WIRE 16 -464 16 -496
WIRE 176 -464 176 -496
WIRE -432 -176 -496 -176
WIRE -240 -176 -368 -176
WIRE -496 -64 -496 -176
WIRE -432 -64 -496 -64
WIRE -240 -64 -240 -176
WIRE -240 -64 -352 -64
WIRE -128 16 -400 16
WIRE -400 64 -400 16
WIRE 784 64 528 64
WIRE 528 96 528 64
WIRE -784 112 -784 48
WIRE -736 112 -784 112
WIRE -624 112 -672 112
WIRE -496 112 -496 -64
WIRE -496 112 -544 112
WIRE -432 112 -496 112
WIRE 496 112 464 112
WIRE 624 128 560 128
WIRE 784 128 784 64
WIRE 832 128 784 128
WIRE -240 144 -240 -64
WIRE -240 144 -288 144
WIRE -32 144 -240 144
WIRE 80 144 -32 144
WIRE 224 144 160 144
WIRE 400 144 224 144
WIRE 496 144 400 144
WIRE -432 176 -576 176
WIRE -784 192 -784 112
WIRE -128 192 -128 16
WIRE 224 192 224 144
WIRE 784 192 784 128
WIRE 528 208 528 160
WIRE -32 240 -32 144
WIRE 752 240 576 240
WIRE -1008 272 -1008 112
WIRE -240 272 -240 144
WIRE 1072 272 896 272
WIRE -576 288 -576 176
WIRE 224 288 224 256
WIRE -400 304 -400 224
WIRE -128 304 -128 272
WIRE 400 304 400 144
WIRE 752 304 400 304
WIRE 464 352 464 112
WIRE 576 352 576 240
WIRE 576 352 464 352
WIRE 576 368 576 352
WIRE -576 400 -576 368
WIRE -240 400 -240 352
WIRE -240 400 -576 400
WIRE -32 400 -32 320
WIRE -32 400 -240 400
WIRE 784 400 784 352
WIRE 784 400 688 400
WIRE -1008 432 -1008 352
WIRE -784 432 -784 272
WIRE -576 432 -576 400
WIRE 784 448 784 400
WIRE 576 496 576 448
WIRE 688 496 688 400
WIRE 688 496 576 496
FLAG 16 -464 0
FLAG 176 -464 0
FLAG -64 -464 0
FLAG -288 -464 0
FLAG -400 304 0
FLAG -128 304 0
FLAG -576 432 0
FLAG -784 432 0
FLAG 784 448 0
FLAG -128 16 3v3
FLAG 832 128 3v3
FLAG 1072 272 out
FLAG 528 208 0
FLAG 624 128 out2
FLAG 224 288 0
FLAG -304 -1056 0
FLAG -304 -1264 pu
FLAG -1008 432 0
FLAG -784 48 white
FLAG 288 -656 white
SYMBOL Opamps\\AD8618 16 -720 R0
SYMATTR InstName U1
SYMBOL voltage 16 -592 R0
WINDOW 123 0 0 Left 0
WINDOW 39 0 0 Left 0
SYMATTR InstName V1
SYMATTR Value -2.5
SYMBOL voltage 176 -592 R0
WINDOW 123 0 0 Left 0
WINDOW 39 0 0 Left 0
SYMATTR InstName V2
SYMATTR Value 2.5
SYMBOL res -128 -688 R90
WINDOW 0 0 56 VBottom 2
WINDOW 3 32 56 VTop 2
SYMATTR InstName R1
SYMATTR Value R=V(pu)*1000k
SYMBOL res 96 -800 R90
WINDOW 0 0 56 VBottom 2
WINDOW 3 32 56 VTop 2
SYMATTR InstName R2
SYMATTR Value 10k
SYMBOL cap 80 -896 R90
WINDOW 0 0 32 VBottom 2
WINDOW 3 32 32 VTop 2
SYMATTR InstName C1
SYMATTR Value 1p
SYMBOL bv -288 -592 R0
SYMATTR InstName B1
SYMATTR Value V=white(10000*time)
SYMBOL Opamps\\LTC6258 -400 144 R0
SYMATTR InstName U2
SYMBOL voltage -128 176 R0
WINDOW 123 0 0 Left 0
WINDOW 39 0 0 Left 0
SYMATTR InstName V3
SYMATTR Value 3.3
SYMBOL voltage -576 272 R0
WINDOW 123 0 0 Left 0
WINDOW 39 0 0 Left 0
SYMATTR InstName V4
SYMATTR Value 1.6
SYMBOL cap -672 96 R90
WINDOW 0 0 32 VBottom 2
WINDOW 3 32 32 VTop 2
SYMATTR InstName C2
SYMATTR Value 1µ
SYMBOL res -528 96 R90
WINDOW 0 0 56 VBottom 2
WINDOW 3 32 56 VTop 2
SYMATTR InstName R3
SYMATTR Value 1k
SYMBOL res -336 -80 R90
WINDOW 0 0 56 VBottom 2
WINDOW 3 32 56 VTop 2
SYMATTR InstName R4
SYMATTR Value 60k
SYMBOL cap -368 -192 R90
WINDOW 0 0 32 VBottom 2
WINDOW 3 32 32 VTop 2
SYMATTR InstName C3
SYMATTR Value 1p
SYMBOL res -256 256 R0
SYMATTR InstName R5
SYMATTR Value 500k
SYMBOL res -800 176 R0
SYMATTR InstName R6
SYMATTR Value 500k
SYMBOL res -48 224 R0
SYMATTR InstName R7
SYMATTR Value 500k
SYMBOL Opamps\\LTC6258 784 272 R0
SYMATTR InstName U3
SYMBOL voltage 576 352 R0
WINDOW 123 0 0 Left 0
WINDOW 39 0 0 Left 0
SYMATTR InstName V6
SYMATTR Value 1.75
SYMBOL Comparators\\LT1716 528 128 R0
SYMATTR InstName U4
SYMBOL res 176 128 R90
WINDOW 0 0 56 VBottom 2
WINDOW 3 32 56 VTop 2
SYMATTR InstName R8
SYMATTR Value 1k
SYMBOL cap 208 192 R0
SYMATTR InstName C5
SYMATTR Value 100n
SYMBOL voltage -304 -1184 R0
WINDOW 123 0 0 Left 0
WINDOW 39 0 0 Left 0
SYMATTR InstName V5
SYMATTR Value PULSE(1.5 0.5 40m 0 0 20m 40m)
SYMBOL voltage -1008 256 R0
WINDOW 123 24 124 Left 2
WINDOW 39 0 0 Left 0
WINDOW 3 24 96 Invisible 2
SYMATTR Value2 AC 10m 0
SYMATTR InstName V7
SYMATTR Value ""
TEXT -304 -360 Left 2 !.tran 100m
TEXT -296 -312 Left 2 !;ac dec 100 1 50k
